
 OpenBabel02212407153D

 62 69  0  0  0  0  0  0  0  0999 V2000
   37.6460   42.8920   43.2240 O   0  0  0  0  0  0  0  0  0  0  0  0
   36.4070   43.5200   43.4010 C   0  0  2  0  0  0  0  0  0  0  0  0
   35.4030   42.7350   44.2460 C   0  0  0  0  0  0  0  0  0  0  0  0
   36.0730   41.4330   44.7250 C   0  0  2  0  0  0  0  0  0  0  0  0
   36.6780   40.6460   43.5290 C   0  0  2  0  0  0  0  0  0  0  0  0
   37.6560   41.5710   42.7700 C   0  0  2  0  0  0  0  0  0  0  0  0
   39.0520   41.1310   43.2150 C   0  0  0  0  0  0  0  0  0  0  0  0
   37.6220   41.4900   41.3000 N   0  0  0  0  0  0  0  0  0  0  0  0
   36.9560   42.4350   40.5190 C   0  0  0  0  0  0  0  0  0  0  0  0
   36.2100   43.5710   40.8890 C   0  0  0  0  0  0  0  0  0  0  0  0
   35.6150   44.3770   39.9080 C   0  0  0  0  0  0  0  0  0  0  0  0
   35.7770   44.0240   38.5380 C   0  0  0  0  0  0  0  0  0  0  0  0
   36.5130   42.8910   38.1880 C   0  0  0  0  0  0  0  0  0  0  0  0
   37.0960   42.1050   39.1620 C   0  0  0  0  0  0  0  0  0  0  0  0
   37.9010   40.8980   39.1080 C   0  0  0  0  0  0  0  0  0  0  0  0
   38.2030   40.5510   40.4510 C   0  0  0  0  0  0  0  0  0  0  0  0
   38.9790   39.4070   40.6890 C   0  0  0  0  0  0  0  0  0  0  0  0
   39.4120   38.6700   39.5900 C   0  0  0  0  0  0  0  0  0  0  0  0
   39.1020   39.0270   38.2860 C   0  0  0  0  0  0  0  0  0  0  0  0
   38.3400   40.1490   38.0120 C   0  0  0  0  0  0  0  0  0  0  0  0
   36.5050   42.7770   36.6880 C   0  0  0  0  0  0  0  0  0  0  0  0
   35.7210   43.9190   36.2250 N   0  0  0  0  0  0  0  0  0  0  0  0
   35.3050   44.6290   37.2890 C   0  0  0  0  0  0  0  0  0  0  0  0
   34.6280   45.6280   37.2220 O   0  0  0  0  0  0  0  0  0  0  0  0
   34.9320   45.4510   40.6400 C   0  0  0  0  0  0  0  0  0  0  0  0
   35.1650   45.2200   42.0220 C   0  0  0  0  0  0  0  0  0  0  0  0
   34.6460   46.0770   42.9970 C   0  0  0  0  0  0  0  0  0  0  0  0
   33.9010   47.1610   42.5580 C   0  0  0  0  0  0  0  0  0  0  0  0
   33.6720   47.3900   41.2090 C   0  0  0  0  0  0  0  0  0  0  0  0
   34.1760   46.5520   40.2240 C   0  0  0  0  0  0  0  0  0  0  0  0
   35.9310   44.0610   42.1260 N   0  0  0  0  0  0  0  0  0  0  0  0
   35.6400   40.0220   42.7260 O   0  0  0  0  0  0  0  0  0  0  0  0
   34.8060   40.9110   41.9750 C   0  0  0  0  0  0  0  0  0  0  0  0
   35.1200   40.5790   45.4530 N   0  3  0  0  0  0  0  0  0  0  0  0
   35.6260   39.4880   46.2970 C   0  0  0  0  0  0  0  0  0  0  0  0
   36.5457   44.3687   44.0376 H   0  0  0  0  0  0  0  0  0  0  0  0
   34.5413   42.5009   43.6565 H   0  0  0  0  0  0  0  0  0  0  0  0
   35.0988   43.3202   45.0886 H   0  0  0  0  0  0  0  0  0  0  0  0
   36.8626   41.7080   45.3927 H   0  0  0  0  0  0  0  0  0  0  0  0
   37.2584   39.8131   43.8672 H   0  0  0  0  0  0  0  0  0  0  0  0
   39.1170   41.1763   44.2821 H   0  0  0  0  0  0  0  0  0  0  0  0
   39.7849   41.7814   42.7851 H   0  0  0  0  0  0  0  0  0  0  0  0
   39.2305   40.1276   42.8891 H   0  0  0  0  0  0  0  0  0  0  0  0
   39.2218   39.1201   41.6501 H   0  0  0  0  0  0  0  0  0  0  0  0
   39.9848   37.8269   39.7516 H   0  0  0  0  0  0  0  0  0  0  0  0
   39.4459   38.4453   37.5060 H   0  0  0  0  0  0  0  0  0  0  0  0
   38.1066   40.4203   37.0440 H   0  0  0  0  0  0  0  0  0  0  0  0
   36.0478   41.8589   36.3833 H   0  0  0  0  0  0  0  0  0  0  0  0
   37.4942   42.7774   36.2801 H   0  0  0  0  0  0  0  0  0  0  0  0
   35.5278   44.1347   35.2841 H   0  0  0  0  0  0  0  0  0  0  0  0
   34.8105   45.9098   44.0020 H   0  0  0  0  0  0  0  0  0  0  0  0
   33.5067   47.8143   43.2528 H   0  0  0  0  0  0  0  0  0  0  0  0
   33.1095   48.2088   40.9292 H   0  0  0  0  0  0  0  0  0  0  0  0
   33.9998   46.7341   39.2236 H   0  0  0  0  0  0  0  0  0  0  0  0
   34.0835   40.3439   41.4261 H   0  0  0  0  0  0  0  0  0  0  0  0
   35.4084   41.4754   41.2942 H   0  0  0  0  0  0  0  0  0  0  0  0
   34.3029   41.5781   42.6434 H   0  0  0  0  0  0  0  0  0  0  0  0
   34.5082   40.1553   44.7554 H   0  0  0  0  0  0  0  0  0  0  0  0
   34.6870   41.2175   46.1203 H   0  0  0  0  0  0  0  0  0  0  0  0
   36.1054   38.7547   45.6826 H   0  0  0  0  0  0  0  0  0  0  0  0
   34.8107   39.0356   46.8219 H   0  0  0  0  0  0  0  0  0  0  0  0
   36.3304   39.8791   47.0011 H   0  0  0  0  0  0  0  0  0  0  0  0
  1  2  1  0  0  0  0
  1  6  1  0  0  0  0
  2  3  1  0  0  0  0
  2 31  1  0  0  0  0
  2 36  1  1  0  0  0
  3  4  1  0  0  0  0
  3 37  1  0  0  0  0
  3 38  1  0  0  0  0
  4  5  1  0  0  0  0
  4 34  1  0  0  0  0
  4 39  1  1  0  0  0
  5  6  1  0  0  0  0
  5 32  1  0  0  0  0
  5 40  1  1  0  0  0
  6  7  1  1  0  0  0
  6  8  1  0  0  0  0
  7 41  1  0  0  0  0
  7 42  1  0  0  0  0
  7 43  1  0  0  0  0
  8  9  1  0  0  0  0
  8 16  1  0  0  0  0
  9 10  2  0  0  0  0
  9 14  1  0  0  0  0
 10 11  1  0  0  0  0
 10 31  1  0  0  0  0
 11 12  2  0  0  0  0
 11 25  1  0  0  0  0
 12 13  1  0  0  0  0
 12 23  1  0  0  0  0
 13 14  2  0  0  0  0
 13 21  1  0  0  0  0
 14 15  1  0  0  0  0
 15 16  2  0  0  0  0
 15 20  1  0  0  0  0
 16 17  1  0  0  0  0
 17 18  2  0  0  0  0
 17 44  1  0  0  0  0
 18 19  1  0  0  0  0
 18 45  1  0  0  0  0
 19 20  2  0  0  0  0
 19 46  1  0  0  0  0
 20 47  1  0  0  0  0
 21 22  1  0  0  0  0
 21 48  1  0  0  0  0
 21 49  1  0  0  0  0
 22 23  1  0  0  0  0
 22 50  1  0  0  0  0
 23 24  2  0  0  0  0
 25 26  2  0  0  0  0
 25 30  1  0  0  0  0
 26 27  1  0  0  0  0
 26 31  1  0  0  0  0
 27 28  2  0  0  0  0
 27 51  1  0  0  0  0
 28 29  1  0  0  0  0
 28 52  1  0  0  0  0
 29 30  2  0  0  0  0
 29 53  1  0  0  0  0
 30 54  1  0  0  0  0
 32 33  1  0  0  0  0
 33 55  1  0  0  0  0
 33 56  1  0  0  0  0
 33 57  1  0  0  0  0
 34 35  1  0  0  0  0
 34 58  1  0  0  0  0
 34 59  1  0  0  0  0
 35 60  1  0  0  0  0
 35 61  1  0  0  0  0
 35 62  1  0  0  0  0
M  CHG  1  34   1
M  END
$$$$
