
     RDKit          3D

 35 42  0  0  0  0  0  0  0  0999 V2000
   37.6460   42.8920   43.2240 O   0  0  0  0  0  0  0  0  0  0  0  0
   36.4070   43.5200   43.4010 C   0  0  2  0  0  0  0  0  0  0  0  0
   35.4030   42.7350   44.2460 C   0  0  0  0  0  0  0  0  0  0  0  0
   36.0730   41.4330   44.7250 C   0  0  2  0  0  0  0  0  0  0  0  0
   36.6780   40.6460   43.5290 C   0  0  2  0  0  0  0  0  0  0  0  0
   37.6560   41.5710   42.7700 C   0  0  2  0  0  0  0  0  0  0  0  0
   39.0520   41.1310   43.2150 C   0  0  0  0  0  0  0  0  0  0  0  0
   37.6220   41.4900   41.3000 N   0  0  0  0  0  0  0  0  0  0  0  0
   36.9560   42.4350   40.5190 C   0  0  0  0  0  0  0  0  0  0  0  0
   36.2100   43.5710   40.8890 C   0  0  0  0  0  0  0  0  0  0  0  0
   35.6150   44.3770   39.9080 C   0  0  0  0  0  0  0  0  0  0  0  0
   35.7770   44.0240   38.5380 C   0  0  0  0  0  0  0  0  0  0  0  0
   36.5130   42.8910   38.1880 C   0  0  0  0  0  0  0  0  0  0  0  0
   37.0960   42.1050   39.1620 C   0  0  0  0  0  0  0  0  0  0  0  0
   37.9010   40.8980   39.1080 C   0  0  0  0  0  0  0  0  0  0  0  0
   38.2030   40.5510   40.4510 C   0  0  0  0  0  0  0  0  0  0  0  0
   38.9790   39.4070   40.6890 C   0  0  0  0  0  0  0  0  0  0  0  0
   39.4120   38.6700   39.5900 C   0  0  0  0  0  0  0  0  0  0  0  0
   39.1020   39.0270   38.2860 C   0  0  0  0  0  0  0  0  0  0  0  0
   38.3400   40.1490   38.0120 C   0  0  0  0  0  0  0  0  0  0  0  0
   36.5050   42.7770   36.6880 C   0  0  0  0  0  0  0  0  0  0  0  0
   35.7210   43.9190   36.2250 N   0  0  0  0  0  0  0  0  0  0  0  0
   35.3050   44.6290   37.2890 C   0  0  0  0  0  0  0  0  0  0  0  0
   34.6280   45.6280   37.2220 O   0  0  0  0  0  0  0  0  0  0  0  0
   34.9320   45.4510   40.6400 C   0  0  0  0  0  0  0  0  0  0  0  0
   35.1650   45.2200   42.0220 C   0  0  0  0  0  0  0  0  0  0  0  0
   34.6460   46.0770   42.9970 C   0  0  0  0  0  0  0  0  0  0  0  0
   33.9010   47.1610   42.5580 C   0  0  0  0  0  0  0  0  0  0  0  0
   33.6720   47.3900   41.2090 C   0  0  0  0  0  0  0  0  0  0  0  0
   34.1760   46.5520   40.2240 C   0  0  0  0  0  0  0  0  0  0  0  0
   35.9310   44.0610   42.1260 N   0  0  0  0  0  0  0  0  0  0  0  0
   35.6400   40.0220   42.7260 O   0  0  0  0  0  0  0  0  0  0  0  0
   34.8060   40.9110   41.9750 C   0  0  0  0  0  0  0  0  0  0  0  0
   35.1200   40.5790   45.4530 N   0  0  0  0  0  0  0  0  0  0  0  0
   35.6260   39.4880   46.2970 C   0  0  0  0  0  0  0  0  0  0  0  0
  1  2  1  0
  1  6  1  0
  2  3  1  6
  2 31  1  0
  3  4  1  0
  4  5  1  0
  4 34  1  6
  5  6  1  0
  5 32  1  6
  6  7  1  1
  6  8  1  0
  8  9  1  0
  8 16  1  0
  9 10  2  0
  9 14  1  0
 10 11  1  0
 10 31  1  0
 11 12  2  0
 11 25  1  0
 12 13  1  0
 12 23  1  0
 13 14  2  0
 13 21  1  0
 14 15  1  0
 15 16  2  0
 15 20  1  0
 16 17  1  0
 17 18  2  0
 18 19  1  0
 19 20  2  0
 21 22  1  0
 22 23  1  0
 23 24  2  0
 25 26  2  0
 25 30  1  0
 26 27  1  0
 26 31  1  0
 27 28  2  0
 28 29  1  0
 29 30  2  0
 32 33  1  0
 34 35  1  0
M  END
$$$$
