
 OpenBabel02212407153D

 28 30  0  0  0  0  0  0  0  0999 V2000
   33.5410   48.7970   41.4520 C   0  0  0  0  0  0  0  0  0  0  0  0
   34.5320   48.6930   40.2850 C   0  0  0  0  0  0  0  0  0  0  0  0
   34.2090   47.4600   41.1310 C   0  0  0  0  0  0  0  0  0  0  0  0
   33.2930   46.4340   40.4620 C   0  0  0  0  0  0  0  0  0  0  0  0
   34.0960   45.5640   39.5920 N   0  0  0  0  0  0  0  0  0  0  0  0
   34.6650   44.4390   40.0380 C   0  0  0  0  0  0  0  0  0  0  0  0
   35.4700   43.6450   39.2120 C   0  0  0  0  0  0  0  0  0  0  0  0
   35.7150   43.9660   37.8710 C   0  0  0  0  0  0  0  0  0  0  0  0
   36.5160   43.1340   37.0850 C   0  0  0  0  0  0  0  0  0  0  0  0
   37.0760   41.9840   37.6520 C   0  0  0  0  0  0  0  0  0  0  0  0
   38.0850   40.9380   36.7330 Cl  0  0  0  0  0  0  0  0  0  0  0  0
   36.8350   41.6630   38.9870 C   0  0  0  0  0  0  0  0  0  0  0  0
   36.0320   42.4880   39.7700 C   0  0  0  0  0  0  0  0  0  0  0  0
   35.7980   42.1700   41.0530 N   0  0  0  0  0  0  0  0  0  0  0  0
   35.0350   42.9500   41.7980 C   0  0  0  0  0  0  0  0  0  0  0  0
   34.4780   44.0550   41.3150 N   0  0  0  0  0  0  0  0  0  0  0  0
   33.8121   49.3316   42.3383 H   0  0  0  0  0  0  0  0  0  0  0  0
   32.5305   49.1319   41.5595 H   0  0  0  0  0  0  0  0  0  0  0  0
   35.4946   49.1547   40.3572 H   0  0  0  0  0  0  0  0  0  0  0  0
   34.4998   48.9249   39.2409 H   0  0  0  0  0  0  0  0  0  0  0  0
   34.7898   46.7489   41.6806 H   0  0  0  0  0  0  0  0  0  0  0  0
   32.5543   46.9413   39.8772 H   0  0  0  0  0  0  0  0  0  0  0  0
   32.8071   45.8438   41.2107 H   0  0  0  0  0  0  0  0  0  0  0  0
   34.2193   45.8178   38.6488 H   0  0  0  0  0  0  0  0  0  0  0  0
   35.3028   44.8193   37.4624 H   0  0  0  0  0  0  0  0  0  0  0  0
   36.6931   43.3655   36.0950 H   0  0  0  0  0  0  0  0  0  0  0  0
   37.2525   40.8123   39.3957 H   0  0  0  0  0  0  0  0  0  0  0  0
   34.8669   42.6934   42.7834 H   0  0  0  0  0  0  0  0  0  0  0  0
  1 17  1  0  0  0  0
  1 18  1  0  0  0  0
  2  1  1  0  0  0  0
  2 19  1  0  0  0  0
  2 20  1  0  0  0  0
  3  1  1  0  0  0  0
  3  2  1  0  0  0  0
  3 21  1  0  0  0  0
  4  3  1  0  0  0  0
  4 22  1  0  0  0  0
  4 23  1  0  0  0  0
  5  4  1  0  0  0  0
  5 24  1  0  0  0  0
  6  5  1  0  0  0  0
  7  6  1  0  0  0  0
  7  8  2  0  0  0  0
  8 25  1  0  0  0  0
  9  8  1  0  0  0  0
  9 26  1  0  0  0  0
 10  9  2  0  0  0  0
 11 10  1  0  0  0  0
 12 10  1  0  0  0  0
 12 13  2  0  0  0  0
 12 27  1  0  0  0  0
 13  7  1  0  0  0  0
 14 13  1  0  0  0  0
 14 15  2  0  0  0  0
 15 16  1  0  0  0  0
 15 28  1  0  0  0  0
 16  6  2  0  0  0  0
M  END
$$$$
