
 OpenBabel02212407153D

 58 61  0  0  0  0  0  0  0  0999 V2000
   28.6370   14.9420   12.6730 C   0  0  0  0  0  0  0  0  0  0  0  0
   37.6610   10.4430   14.7000 C   0  0  0  0  0  0  0  0  0  0  0  0
   29.7340   15.5950   13.2810 C   0  0  0  0  0  0  0  0  0  0  0  0
   30.4220   14.9630   14.3160 C   0  0  0  0  0  0  0  0  0  0  0  0
   34.9080   13.1810   16.4400 C   0  0  0  0  0  0  0  0  0  0  0  0
   30.0630   13.6970   14.8030 C   0  0  0  0  0  0  0  0  0  0  0  0
   30.7950   13.0210   15.9030 C   0  0  0  0  0  0  0  0  0  0  0  0
   32.6180   13.0900   17.5330 C   0  0  0  0  0  0  0  0  0  0  0  0
   33.7650   12.2420   16.9920 C   0  0  0  0  0  0  0  0  0  0  0  0
   36.8980   11.7700   16.5880 C   0  0  0  0  0  0  0  0  0  0  0  0
   38.1220   11.3800   15.7930 C   0  0  0  0  0  0  0  0  0  0  0  0
   31.8270   13.6740   16.4520 N   0  0  0  0  0  0  0  0  0  0  0  0
   35.8750   12.3890   15.7380 N   0  0  0  0  0  0  0  0  0  0  0  0
   28.2710   13.7040   13.1700 C   0  0  0  0  0  0  0  0  0  0  0  0
   28.5400   11.7800   14.5920 N   0  0  0  0  0  0  0  0  0  0  0  0
   25.6770   11.3240   12.5450 O   0  0  0  0  0  0  0  0  0  0  0  0
   26.6070   11.8960   13.1170 C   0  0  0  0  0  0  0  0  0  0  0  0
   27.1980   12.9770   12.5470 N   0  0  0  0  0  0  0  0  0  0  0  0
   28.9600   13.0590   14.2260 C   0  0  0  0  0  0  0  0  0  0  0  0
   27.1180   11.4740   14.4700 C   0  0  1  0  0  0  0  0  0  0  0  0
   26.8800    9.9930   14.6960 C   0  0  0  0  0  0  0  0  0  0  0  0
   30.5110   11.8910   16.3290 O   0  0  0  0  0  0  0  0  0  0  0  0
   35.6890   11.9710   14.4370 C   0  0  0  0  0  0  0  0  0  0  0  0
   34.6480   12.4270   13.6910 C   0  0  0  0  0  0  0  0  0  0  0  0
   34.4170   11.9150   12.3950 C   0  0  0  0  0  0  0  0  0  0  0  0
   33.4700   12.3550   11.5720 O   0  0  0  0  0  0  0  0  0  0  0  0
   32.6480   13.3850   11.9730 C   0  0  0  0  0  0  0  0  0  0  0  0
   35.2220   10.9430   11.8970 C   0  0  0  0  0  0  0  0  0  0  0  0
   36.2880   10.4850   12.6560 C   0  0  0  0  0  0  0  0  0  0  0  0
   36.5420   10.9710   13.9000 C   0  0  0  0  0  0  0  0  0  0  0  0
   28.1274   15.3738   11.8863 H   0  0  0  0  0  0  0  0  0  0  0  0
   37.3494    9.5244   15.1517 H   0  0  0  0  0  0  0  0  0  0  0  0
   38.4870   10.3104   14.0329 H   0  0  0  0  0  0  0  0  0  0  0  0
   30.0233   16.5325   12.9610 H   0  0  0  0  0  0  0  0  0  0  0  0
   31.2285   15.4463   14.7414 H   0  0  0  0  0  0  0  0  0  0  0  0
   35.3828   13.6838   17.2565 H   0  0  0  0  0  0  0  0  0  0  0  0
   34.4865   13.9048   15.7742 H   0  0  0  0  0  0  0  0  0  0  0  0
   31.9832   12.4732   18.1342 H   0  0  0  0  0  0  0  0  0  0  0  0
   33.0345   13.8873   18.1125 H   0  0  0  0  0  0  0  0  0  0  0  0
   33.4039   11.6187   16.2008 H   0  0  0  0  0  0  0  0  0  0  0  0
   34.1569   11.6328   17.7796 H   0  0  0  0  0  0  0  0  0  0  0  0
   36.4866   10.8937   17.0439 H   0  0  0  0  0  0  0  0  0  0  0  0
   37.1939   12.4837   17.3283 H   0  0  0  0  0  0  0  0  0  0  0  0
   38.8290   10.8859   16.4262 H   0  0  0  0  0  0  0  0  0  0  0  0
   38.5986   12.2438   15.3787 H   0  0  0  0  0  0  0  0  0  0  0  0
   32.0589   14.5709   16.1187 H   0  0  0  0  0  0  0  0  0  0  0  0
   29.1798   11.1079   14.9208 H   0  0  0  0  0  0  0  0  0  0  0  0
   26.8771   13.2773   11.6660 H   0  0  0  0  0  0  0  0  0  0  0  0
   26.5812   12.0203   15.2172 H   0  0  0  0  0  0  0  0  0  0  0  0
   27.4101    9.4297   13.9567 H   0  0  0  0  0  0  0  0  0  0  0  0
   25.8332    9.7844   14.6206 H   0  0  0  0  0  0  0  0  0  0  0  0
   27.2288    9.7203   15.6701 H   0  0  0  0  0  0  0  0  0  0  0  0
   34.0220   13.1524   14.0743 H   0  0  0  0  0  0  0  0  0  0  0  0
   31.9501   13.6086   11.1933 H   0  0  0  0  0  0  0  0  0  0  0  0
   33.2389   14.2521   12.1822 H   0  0  0  0  0  0  0  0  0  0  0  0
   32.1164   13.0944   12.8549 H   0  0  0  0  0  0  0  0  0  0  0  0
   35.0423   10.5478   10.9608 H   0  0  0  0  0  0  0  0  0  0  0  0
   36.9052    9.7556   12.2662 H   0  0  0  0  0  0  0  0  0  0  0  0
  1 31  1  0  0  0  0
  2 30  1  0  0  0  0
  2 32  1  0  0  0  0
  2 33  1  0  0  0  0
  3  1  2  0  0  0  0
  3 34  1  0  0  0  0
  4  3  1  0  0  0  0
  4 35  1  0  0  0  0
  5 13  1  0  0  0  0
  5 36  1  0  0  0  0
  5 37  1  0  0  0  0
  6  4  2  0  0  0  0
  6 19  1  0  0  0  0
  7  6  1  0  0  0  0
  8 12  1  0  0  0  0
  8  9  1  0  0  0  0
  8 38  1  0  0  0  0
  8 39  1  0  0  0  0
  9  5  1  0  0  0  0
  9 40  1  0  0  0  0
  9 41  1  0  0  0  0
 10 13  1  0  0  0  0
 10 11  1  0  0  0  0
 10 42  1  0  0  0  0
 10 43  1  0  0  0  0
 11  2  1  0  0  0  0
 11 44  1  0  0  0  0
 11 45  1  0  0  0  0
 12  7  1  0  0  0  0
 12 46  1  0  0  0  0
 13 23  1  0  0  0  0
 14  1  1  0  0  0  0
 14 18  1  0  0  0  0
 15 47  1  0  0  0  0
 17 18  1  0  0  0  0
 17 16  2  0  0  0  0
 18 48  1  0  0  0  0
 19 15  1  0  0  0  0
 19 14  2  0  0  0  0
 20 21  1  0  0  0  0
 20 15  1  0  0  0  0
 20 17  1  0  0  0  0
 20 49  1  1  0  0  0
 21 50  1  0  0  0  0
 21 51  1  0  0  0  0
 21 52  1  0  0  0  0
 22  7  2  0  0  0  0
 23 24  1  0  0  0  0
 23 30  2  0  0  0  0
 24 25  2  0  0  0  0
 24 53  1  0  0  0  0
 25 26  1  0  0  0  0
 25 28  1  0  0  0  0
 27 26  1  0  0  0  0
 27 54  1  0  0  0  0
 27 55  1  0  0  0  0
 27 56  1  0  0  0  0
 28 57  1  0  0  0  0
 29 28  2  0  0  0  0
 29 58  1  0  0  0  0
 30 29  1  0  0  0  0
M  END
$$$$
