
     RDKit          3D

 34 38  0  0  0  0  0  0  0  0999 V2000
   27.1950   10.6090   13.8690 C   0  0  0  0  0  0  0  0  0  0  0  0
   27.7170   11.9520   14.0040 C   0  0  0  0  0  0  0  0  0  0  0  0
   26.5740   14.2010   13.2990 C   0  0  0  0  0  0  0  0  0  0  0  0
   31.3770   13.1150   15.6840 C   0  0  0  0  0  0  0  0  0  0  0  0
   30.9360   13.7190   14.4760 C   0  0  0  0  0  0  0  0  0  0  0  0
   33.4930   13.2610   17.0540 C   0  0  0  0  0  0  0  0  0  0  0  0
   34.2290   11.9790   16.5970 C   0  0  0  0  0  0  0  0  0  0  0  0
   29.7210   13.3350   13.9030 C   0  0  0  0  0  0  0  0  0  0  0  0
   32.8830   14.6200   14.9380 C   0  0  0  0  0  0  0  0  0  0  0  0
   36.2520   10.6850   17.1260 C   0  0  0  0  0  0  0  0  0  0  0  0
   35.6240   10.7140   19.8900 C   0  0  0  0  0  0  0  0  0  0  0  0
   34.3310   13.1630   12.3500 C   0  0  0  0  0  0  0  0  0  0  0  0
   34.6580   11.8340   12.1380 C   0  0  0  0  0  0  0  0  0  0  0  0
   35.7990   11.3060   12.7570 C   0  0  0  0  0  0  0  0  0  0  0  0
   36.6250   12.1020   13.5460 C   0  0  0  0  0  0  0  0  0  0  0  0
   36.2720   13.4320   13.7540 C   0  0  0  0  0  0  0  0  0  0  0  0
   37.0340    9.3360   13.1870 C   0  0  0  0  0  0  0  0  0  0  0  0
   35.9940    9.9810   12.4980 O   0  0  0  0  0  0  0  0  0  0  0  0
   35.1240   13.9610   13.1770 C   0  0  0  0  0  0  0  0  0  0  0  0
   34.7340   15.3720   13.4690 C   0  0  0  0  0  0  0  0  0  0  0  0
   34.1190   15.4460   14.8710 C   0  0  0  0  0  0  0  0  0  0  0  0
   32.6000   13.7270   15.9990 N   0  0  0  0  0  0  0  0  0  0  0  0
   35.2160   11.6200   17.6520 N   0  0  0  0  0  0  0  0  0  0  0  0
   34.5490   10.9830   18.8230 C   0  0  0  0  0  0  0  0  0  0  0  0
   36.6190    9.8710   19.3720 O   0  0  0  0  0  0  0  0  0  0  0  0
   37.2630   10.4200   18.2550 C   0  0  0  0  0  0  0  0  0  0  0  0
   30.6270   12.1340   16.3390 C   0  0  0  0  0  0  0  0  0  0  0  0
   29.4290   11.7710   15.7610 C   0  0  0  0  0  0  0  0  0  0  0  0
   31.8880   14.6650   14.0270 N   0  0  0  0  0  0  0  0  0  0  0  0
   28.9870   12.3580   14.5530 C   0  0  0  0  0  0  0  0  0  0  0  0
   26.7180   12.7540   13.4990 C   0  0  0  0  0  0  0  0  0  0  0  0
   25.6640   11.9640   13.1080 O   0  0  0  0  0  0  0  0  0  0  0  0
   25.9620   10.6760   13.3260 N   0  0  0  0  0  0  0  0  0  0  0  0
   27.8650    9.3430   14.2220 C   0  0  0  0  0  0  0  0  0  0  0  0
 34  1  1  0
 33  1  2  0
 33 32  1  0
  1  2  1  0
 12 13  2  0
 12 19  1  0
 32 31  1  0
 13 14  1  0
  8  5  2  0
  8 30  1  0
 20 19  1  0
 20 21  1  0
  2 31  2  0
  2 30  1  0
 29  5  1  0
 29  9  2  0
 19 16  2  0
 31  3  1  0
  5  4  1  0
 30 28  2  0
 14 18  1  0
 14 15  2  0
 21  9  1  0
 18 17  1  0
  9 22  1  0
 16 15  1  0
  4 22  1  0
  4 27  2  0
 28 27  1  0
 22  6  1  0
  6  7  1  0
  7 23  1  0
 11 25  1  0
 11 24  1  0
 26 25  1  0
 26 10  1  0
 23 24  1  0
 23 10  1  0
M  END
$$$$
