
 OpenBabel02212407153D

 67 71  0  0  0  0  0  0  0  0999 V2000
   27.1950   10.6090   13.8690 C   0  0  0  0  0  0  0  0  0  0  0  0
   27.7170   11.9520   14.0040 C   0  0  0  0  0  0  0  0  0  0  0  0
   26.5740   14.2010   13.2990 C   0  0  0  0  0  0  0  0  0  0  0  0
   31.3770   13.1150   15.6840 C   0  0  0  0  0  0  0  0  0  0  0  0
   30.9360   13.7190   14.4760 C   0  0  0  0  0  0  0  0  0  0  0  0
   33.4930   13.2610   17.0540 C   0  0  0  0  0  0  0  0  0  0  0  0
   34.2290   11.9790   16.5970 C   0  0  0  0  0  0  0  0  0  0  0  0
   29.7210   13.3350   13.9030 C   0  0  0  0  0  0  0  0  0  0  0  0
   32.8830   14.6200   14.9380 C   0  0  0  0  0  0  0  0  0  0  0  0
   36.2520   10.6850   17.1260 C   0  0  0  0  0  0  0  0  0  0  0  0
   35.6240   10.7140   19.8900 C   0  0  0  0  0  0  0  0  0  0  0  0
   34.3310   13.1630   12.3500 C   0  0  0  0  0  0  0  0  0  0  0  0
   34.6580   11.8340   12.1380 C   0  0  0  0  0  0  0  0  0  0  0  0
   35.7990   11.3060   12.7570 C   0  0  0  0  0  0  0  0  0  0  0  0
   36.6250   12.1020   13.5460 C   0  0  0  0  0  0  0  0  0  0  0  0
   36.2720   13.4320   13.7540 C   0  0  0  0  0  0  0  0  0  0  0  0
   37.0340    9.3360   13.1870 C   0  0  0  0  0  0  0  0  0  0  0  0
   35.9940    9.9810   12.4980 O   0  0  0  0  0  0  0  0  0  0  0  0
   35.1240   13.9610   13.1770 C   0  0  0  0  0  0  0  0  0  0  0  0
   34.7340   15.3720   13.4690 C   0  0  0  0  0  0  0  0  0  0  0  0
   34.1190   15.4460   14.8710 C   0  0  0  0  0  0  0  0  0  0  0  0
   32.6000   13.7270   15.9990 N   0  0  0  0  0  0  0  0  0  0  0  0
   35.2160   11.6200   17.6520 N   0  3  0  0  0  0  0  0  0  0  0  0
   34.5490   10.9830   18.8230 C   0  0  0  0  0  0  0  0  0  0  0  0
   36.6190    9.8710   19.3720 O   0  0  0  0  0  0  0  0  0  0  0  0
   37.2630   10.4200   18.2550 C   0  0  0  0  0  0  0  0  0  0  0  0
   30.6270   12.1340   16.3390 C   0  0  0  0  0  0  0  0  0  0  0  0
   29.4290   11.7710   15.7610 C   0  0  0  0  0  0  0  0  0  0  0  0
   31.8880   14.6650   14.0270 N   0  0  0  0  0  0  0  0  0  0  0  0
   28.9870   12.3580   14.5530 C   0  0  0  0  0  0  0  0  0  0  0  0
   26.7180   12.7540   13.4990 C   0  0  0  0  0  0  0  0  0  0  0  0
   25.6640   11.9640   13.1080 O   0  0  0  0  0  0  0  0  0  0  0  0
   25.9620   10.6760   13.3260 N   0  0  0  0  0  0  0  0  0  0  0  0
   27.8650    9.3430   14.2220 C   0  0  0  0  0  0  0  0  0  0  0  0
   25.6165   14.4080   12.8686 H   0  0  0  0  0  0  0  0  0  0  0  0
   27.3433   14.5485   12.6414 H   0  0  0  0  0  0  0  0  0  0  0  0
   26.6573   14.7013   14.2412 H   0  0  0  0  0  0  0  0  0  0  0  0
   32.9216   13.0472   17.9330 H   0  0  0  0  0  0  0  0  0  0  0  0
   34.2137   14.0229   17.2659 H   0  0  0  0  0  0  0  0  0  0  0  0
   34.7350   12.1601   15.6717 H   0  0  0  0  0  0  0  0  0  0  0  0
   33.5322   11.1804   16.4500 H   0  0  0  0  0  0  0  0  0  0  0  0
   29.3832   13.7640   13.0273 H   0  0  0  0  0  0  0  0  0  0  0  0
   35.7938    9.7662   16.8246 H   0  0  0  0  0  0  0  0  0  0  0  0
   36.7435   11.1113   16.2766 H   0  0  0  0  0  0  0  0  0  0  0  0
   36.0663   11.6416   20.1881 H   0  0  0  0  0  0  0  0  0  0  0  0
   35.1681   10.2395   20.7338 H   0  0  0  0  0  0  0  0  0  0  0  0
   33.4970   13.5655   11.8944 H   0  0  0  0  0  0  0  0  0  0  0  0
   34.0695   11.2407   11.5325 H   0  0  0  0  0  0  0  0  0  0  0  0
   37.4826   11.7132   13.9685 H   0  0  0  0  0  0  0  0  0  0  0  0
   36.8697   14.0322   14.3435 H   0  0  0  0  0  0  0  0  0  0  0  0
   37.0747    8.3086   12.8908 H   0  0  0  0  0  0  0  0  0  0  0  0
   36.8555    9.3968   14.2403 H   0  0  0  0  0  0  0  0  0  0  0  0
   37.9642    9.8112   12.9548 H   0  0  0  0  0  0  0  0  0  0  0  0
   34.0174   15.7020   12.7462 H   0  0  0  0  0  0  0  0  0  0  0  0
   35.5987   16.0005   13.4225 H   0  0  0  0  0  0  0  0  0  0  0  0
   33.8761   16.4634   15.0965 H   0  0  0  0  0  0  0  0  0  0  0  0
   34.8264   15.0715   15.5812 H   0  0  0  0  0  0  0  0  0  0  0  0
   35.6606   12.4894   17.9469 H   0  0  0  0  0  0  0  0  0  0  0  0
   33.8016   11.6394   19.2172 H   0  0  0  0  0  0  0  0  0  0  0  0
   34.0762   10.0686   18.5311 H   0  0  0  0  0  0  0  0  0  0  0  0
   38.0083    9.7358   17.9067 H   0  0  0  0  0  0  0  0  0  0  0  0
   37.7164   11.3470   18.5380 H   0  0  0  0  0  0  0  0  0  0  0  0
   30.9554   11.7007   17.2162 H   0  0  0  0  0  0  0  0  0  0  0  0
   28.8428   11.0561   16.2196 H   0  0  0  0  0  0  0  0  0  0  0  0
   27.2147    8.5221   14.0026 H   0  0  0  0  0  0  0  0  0  0  0  0
   28.0999    9.3428   15.2659 H   0  0  0  0  0  0  0  0  0  0  0  0
   28.7663    9.2459   13.6535 H   0  0  0  0  0  0  0  0  0  0  0  0
  1  2  1  0  0  0  0
  2 31  2  0  0  0  0
  2 30  1  0  0  0  0
  3 35  1  0  0  0  0
  3 36  1  0  0  0  0
  3 37  1  0  0  0  0
  4 22  1  0  0  0  0
  4 27  2  0  0  0  0
  5  4  1  0  0  0  0
  6  7  1  0  0  0  0
  6 38  1  0  0  0  0
  6 39  1  0  0  0  0
  7 23  1  0  0  0  0
  7 40  1  0  0  0  0
  7 41  1  0  0  0  0
  8  5  2  0  0  0  0
  8 30  1  0  0  0  0
  8 42  1  0  0  0  0
  9 22  1  0  0  0  0
 10 43  1  0  0  0  0
 10 44  1  0  0  0  0
 11 25  1  0  0  0  0
 11 24  1  0  0  0  0
 11 45  1  0  0  0  0
 11 46  1  0  0  0  0
 12 13  2  0  0  0  0
 12 19  1  0  0  0  0
 12 47  1  0  0  0  0
 13 14  1  0  0  0  0
 13 48  1  0  0  0  0
 14 18  1  0  0  0  0
 14 15  2  0  0  0  0
 15 49  1  0  0  0  0
 16 15  1  0  0  0  0
 16 50  1  0  0  0  0
 17 51  1  0  0  0  0
 17 52  1  0  0  0  0
 17 53  1  0  0  0  0
 18 17  1  0  0  0  0
 19 16  2  0  0  0  0
 20 19  1  0  0  0  0
 20 21  1  0  0  0  0
 20 54  1  0  0  0  0
 20 55  1  0  0  0  0
 21  9  1  0  0  0  0
 21 56  1  0  0  0  0
 21 57  1  0  0  0  0
 22  6  1  0  0  0  0
 23 24  1  0  0  0  0
 23 10  1  0  0  0  0
 23 58  1  0  0  0  0
 24 59  1  0  0  0  0
 24 60  1  0  0  0  0
 26 25  1  0  0  0  0
 26 10  1  0  0  0  0
 26 61  1  0  0  0  0
 26 62  1  0  0  0  0
 27 63  1  0  0  0  0
 28 27  1  0  0  0  0
 28 64  1  0  0  0  0
 29  5  1  0  0  0  0
 29  9  2  0  0  0  0
 30 28  2  0  0  0  0
 31  3  1  0  0  0  0
 32 31  1  0  0  0  0
 33  1  2  0  0  0  0
 33 32  1  0  0  0  0
 34  1  1  0  0  0  0
 34 65  1  0  0  0  0
 34 66  1  0  0  0  0
 34 67  1  0  0  0  0
M  CHG  1  23   1
M  END
$$$$
