
 OpenBabel02212407153D

 35 37  0  0  0  0  0  0  0  0999 V2000
   27.7650   14.1460   12.5960 C   0  0  0  0  0  0  0  0  0  0  0  0
   26.7410   13.5440   13.5230 C   0  0  0  0  0  0  0  0  0  0  0  0
   27.2560   12.2300   13.9490 N   0  0  0  0  0  0  0  0  0  0  0  0
   26.6190   11.1450   13.4990 C   0  0  0  0  0  0  0  0  0  0  0  0
   25.6570   11.2420   12.7490 O   0  0  0  0  0  0  0  0  0  0  0  0
   27.0430    9.7940   14.1060 C   0  0  0  0  0  0  0  0  0  0  0  0
   28.4870   12.2210   14.7260 C   0  0  0  0  0  0  0  0  0  0  0  0
   29.4250   13.0790   14.0750 C   0  0  0  0  0  0  0  0  0  0  0  0
   29.0640   13.9610   13.0850 C   0  0  0  0  0  0  0  0  0  0  0  0
   30.1800   14.6360   12.7290 N   0  0  0  0  0  0  0  0  0  0  0  0
   31.1740   14.1300   13.3690 N   0  0  0  0  0  0  0  0  0  0  0  0
   30.7490   13.1880   14.2070 C   0  0  0  0  0  0  0  0  0  0  0  0
   31.4830   12.5990   15.1720 N   0  0  0  0  0  0  0  0  0  0  0  0
   32.7540   12.1980   15.0690 C   0  0  0  0  0  0  0  0  0  0  0  0
   33.3740   11.7650   16.2370 C   0  0  0  0  0  0  0  0  0  0  0  0
   34.6770   11.3090   16.2260 C   0  0  0  0  0  0  0  0  0  0  0  0
   35.3170   11.2210   15.0090 C   0  0  0  0  0  0  0  0  0  0  0  0
   34.7420   11.6870   13.8400 C   0  0  0  0  0  0  0  0  0  0  0  0
   33.4340   12.1580   13.8560 C   0  0  0  0  0  0  0  0  0  0  0  0
   27.5746   15.1945   12.4999 H   0  0  0  0  0  0  0  0  0  0  0  0
   27.6888   13.6592   11.6462 H   0  0  0  0  0  0  0  0  0  0  0  0
   26.6011   14.1764   14.3747 H   0  0  0  0  0  0  0  0  0  0  0  0
   25.7973   13.4398   13.0295 H   0  0  0  0  0  0  0  0  0  0  0  0
   27.9023    9.9362   14.7276 H   0  0  0  0  0  0  0  0  0  0  0  0
   27.2812    9.1087   13.3195 H   0  0  0  0  0  0  0  0  0  0  0  0
   26.2400    9.3988   14.6925 H   0  0  0  0  0  0  0  0  0  0  0  0
   28.8781   11.2263   14.7755 H   0  0  0  0  0  0  0  0  0  0  0  0
   28.3003   12.5620   15.7229 H   0  0  0  0  0  0  0  0  0  0  0  0
   30.2240   15.3845   12.0910 H   0  0  0  0  0  0  0  0  0  0  0  0
   31.0393   12.4494   16.0380 H   0  0  0  0  0  0  0  0  0  0  0  0
   32.8510   11.7851   17.1264 H   0  0  0  0  0  0  0  0  0  0  0  0
   35.1559   11.0428   17.1005 H   0  0  0  0  0  0  0  0  0  0  0  0
   36.2555   10.7937   14.9681 H   0  0  0  0  0  0  0  0  0  0  0  0
   35.2815   11.6850   12.9603 H   0  0  0  0  0  0  0  0  0  0  0  0
   32.9768   12.4716   12.9856 H   0  0  0  0  0  0  0  0  0  0  0  0
  1 20  1  0  0  0  0
  1 21  1  0  0  0  0
  2  1  1  0  0  0  0
  2 22  1  0  0  0  0
  2 23  1  0  0  0  0
  3  2  1  0  0  0  0
  4  3  1  0  0  0  0
  4  5  2  0  0  0  0
  6  4  1  0  0  0  0
  6 24  1  0  0  0  0
  6 25  1  0  0  0  0
  6 26  1  0  0  0  0
  7  3  1  0  0  0  0
  7  8  1  0  0  0  0
  7 27  1  0  0  0  0
  7 28  1  0  0  0  0
  8  9  2  0  0  0  0
  9 10  1  0  0  0  0
  9  1  1  0  0  0  0
 10 29  1  0  0  0  0
 11 10  1  0  0  0  0
 12  8  1  0  0  0  0
 12 11  2  0  0  0  0
 13 12  1  0  0  0  0
 13 30  1  0  0  0  0
 14 19  2  0  0  0  0
 14 13  1  0  0  0  0
 15 14  1  0  0  0  0
 15 31  1  0  0  0  0
 16 17  1  0  0  0  0
 16 15  2  0  0  0  0
 16 32  1  0  0  0  0
 17 18  2  0  0  0  0
 17 33  1  0  0  0  0
 18 19  1  0  0  0  0
 18 34  1  0  0  0  0
 19 35  1  0  0  0  0
M  END
$$$$
