
     RDKit          3D

 19 21  0  0  0  0  0  0  0  0999 V2000
   27.7650   14.1460   12.5960 C   0  0  0  0  0  0  0  0  0  0  0  0
   26.7410   13.5440   13.5230 C   0  0  0  0  0  0  0  0  0  0  0  0
   27.2560   12.2300   13.9490 N   0  0  0  0  0  0  0  0  0  0  0  0
   26.6190   11.1450   13.4990 C   0  0  0  0  0  0  0  0  0  0  0  0
   25.6570   11.2420   12.7490 O   0  0  0  0  0  0  0  0  0  0  0  0
   27.0430    9.7940   14.1060 C   0  0  0  0  0  0  0  0  0  0  0  0
   28.4870   12.2210   14.7260 C   0  0  0  0  0  0  0  0  0  0  0  0
   29.4250   13.0790   14.0750 C   0  0  0  0  0  0  0  0  0  0  0  0
   29.0640   13.9610   13.0850 C   0  0  0  0  0  0  0  0  0  0  0  0
   30.1800   14.6360   12.7290 N   0  0  0  0  0  0  0  0  0  0  0  0
   31.1740   14.1300   13.3690 N   0  0  0  0  0  0  0  0  0  0  0  0
   30.7490   13.1880   14.2070 C   0  0  0  0  0  0  0  0  0  0  0  0
   31.4830   12.5990   15.1720 N   0  0  0  0  0  0  0  0  0  0  0  0
   32.7540   12.1980   15.0690 C   0  0  0  0  0  0  0  0  0  0  0  0
   33.3740   11.7650   16.2370 C   0  0  0  0  0  0  0  0  0  0  0  0
   34.6770   11.3090   16.2260 C   0  0  0  0  0  0  0  0  0  0  0  0
   35.3170   11.2210   15.0090 C   0  0  0  0  0  0  0  0  0  0  0  0
   34.7420   11.6870   13.8400 C   0  0  0  0  0  0  0  0  0  0  0  0
   33.4340   12.1580   13.8560 C   0  0  0  0  0  0  0  0  0  0  0  0
 16 17  1  0
 16 15  2  0
 17 18  2  0
 15 14  1  0
  6  4  1  0
 18 19  1  0
 14 19  2  0
 14 13  1  0
 13 12  1  0
  7  3  1  0
  7  8  1  0
  4  3  1  0
  4  5  2  0
 12  8  1  0
 12 11  2  0
  3  2  1  0
  8  9  2  0
 11 10  1  0
  2  1  1  0
  9 10  1  0
  9  1  1  0
M  END
$$$$
