
     RDKit          3D

 36 39  0  0  0  0  0  0  0  0999 V2000
  -16.4410  -27.9350    5.4030 C   0  0  0  0  0  0  0  0  0  0  0  0
  -17.2790  -26.6730    5.7310 C   0  0  0  0  0  0  0  0  0  0  0  0
  -17.2970  -24.0300    5.3720 O   0  0  0  0  0  0  0  0  0  0  0  0
  -16.3760  -25.4040    3.5280 O   0  0  0  0  0  0  0  0  0  0  0  0
  -14.9310  -24.7080    7.0830 C   0  0  0  0  0  0  0  0  0  0  0  0
  -13.7030  -24.6270    7.7410 C   0  0  0  0  0  0  0  0  0  0  0  0
  -12.5280  -24.9870    7.0790 C   0  0  0  0  0  0  0  0  0  0  0  0
  -12.5920  -25.4380    5.7490 C   0  0  0  0  0  0  0  0  0  0  0  0
  -13.8230  -25.5130    5.0810 C   0  0  0  0  0  0  0  0  0  0  0  0
  -11.1910  -24.9150    7.8260 C   0  0  0  0  0  0  0  0  0  0  0  0
  -10.8620  -26.3430    8.1910 C   0  0  0  0  0  0  0  0  0  0  0  0
   -9.6980  -28.3250    7.4630 C   0  0  0  0  0  0  0  0  0  0  0  0
   -9.2090  -30.5980    8.2130 C   0  0  0  0  0  0  0  0  0  0  0  0
   -9.1070  -31.7840    9.0920 C   0  0  0  0  0  0  0  0  0  0  0  0
   -8.1040  -34.0630    9.2290 C   0  0  0  0  0  0  0  0  0  0  0  0
   -9.9290  -35.1370    7.4060 C   0  0  0  0  0  0  0  0  0  0  0  0
   -8.2810  -31.3100    5.8840 C   0  0  0  0  0  0  0  0  0  0  0  0
   -7.3470  -32.3140    6.1900 C   0  0  0  0  0  0  0  0  0  0  0  0
   -6.8570  -33.1260    5.1620 C   0  0  0  0  0  0  0  0  0  0  0  0
   -7.2860  -32.9330    3.8390 C   0  0  0  0  0  0  0  0  0  0  0  0
   -8.2140  -31.9280    3.5330 C   0  0  0  0  0  0  0  0  0  0  0  0
   -8.7070  -31.1150    4.5610 C   0  0  0  0  0  0  0  0  0  0  0  0
  -16.5570  -25.2130    4.9480 S   0  0  0  0  0  0  0  0  0  0  0  0
  -14.9900  -25.1470    5.7590 C   0  0  0  0  0  0  0  0  0  0  0  0
  -11.3280  -26.8130    9.2210 O   0  0  0  0  0  0  0  0  0  0  0  0
  -10.0830  -27.0390    7.3300 N   0  0  0  0  0  0  0  0  0  0  0  0
   -9.1990  -29.0360    6.5550 N   0  0  0  0  0  0  0  0  0  0  0  0
   -8.8730  -30.3870    6.9220 C   0  0  0  0  0  0  0  0  0  0  0  0
   -9.8950  -29.1690    8.9580 S   0  0  0  0  0  0  0  0  0  0  0  0
   -9.0740  -31.5730   10.2920 O   0  0  0  0  0  0  0  0  0  0  0  0
   -9.0830  -33.2310    8.6510 C   0  0  0  0  0  0  0  0  0  0  0  0
   -8.0280  -35.4160    8.8900 C   0  0  0  0  0  0  0  0  0  0  0  0
   -8.9460  -35.9520    7.9790 C   0  0  0  0  0  0  0  0  0  0  0  0
  -10.0070  -33.7790    7.7440 C   0  0  0  0  0  0  0  0  0  0  0  0
  -11.2620  -32.8120    6.9910 Cl  0  0  0  0  0  0  0  0  0  0  0  0
   -8.7690  -31.6730    1.8900 Cl  0  0  0  0  0  0  0  0  0  0  0  0
 36 21  1  0
 20 21  2  0
 20 19  1  0
 21 22  1  0
 33 32  1  0
 33 16  2  0
 32 15  2  0
 19 18  2  0
 16 34  1  0
 22 17  2  0
  3 23  2  0
  1  2  1  0
 15 31  1  0
  2 23  1  0
 18 17  1  0
 17 28  1  0
 34 31  2  0
 34 35  1  0
 23  4  2  0
 23 24  1  0
 31 14  1  0
  9 24  1  0
  9  8  2  0
 28 27  1  0
 28 13  2  0
 24  5  2  0
 27 12  2  0
 14 13  1  0
 14 30  2  0
  8  7  1  0
 13 29  1  0
 12 26  1  0
 12 29  1  0
  5  6  1  0
 26 11  1  0
  7  6  2  0
  7 10  1  0
 11 10  1  0
 11 25  2  0
M  END
$$$$
